@<TRIPOS>MOLECULE
 Molden generated mol2
    47     45      1
 SMALL
 NO_CHARGES
 ****
 ****
@<TRIPOS>ATOM
     1  H    -0.5247     7.7417    -4.5044  H     1 RES1    0.0000
     2  C     0.1928     7.6003    -3.6866  C.3   1 RES1    0.0000
     3  N    -0.5974     7.7134    -2.2889  N.3   1 RES1    0.0000
     4  C    -1.3052     6.6403    -1.3192  C.3   1 RES1    0.0000
     5  C    -1.3612     4.9975    -1.1756  C.3   1 RES1    0.0000
     6  C     0.4230     3.5490    -3.3405  C.3   1 RES1    0.0000
     7  C     1.1162     4.7831    -4.4449  C.3   1 RES1    0.0000
     8  C     1.0964     6.4328    -4.4240  C.3   1 RES1    0.0000
     9  H     2.0557     6.7605    -4.0010  H     1 RES1    0.0000
    10  H     1.1647     6.6972    -5.4898  H     1 RES1    0.0000
    11  H     0.7652     8.5397    -3.6914  H     1 RES1    0.0000
    12  H    -1.1711     8.5566    -2.3088  H     1 RES1    0.0000
    13  H    -0.9462     6.9517    -0.3253  H     1 RES1    0.0000
    14  H    -2.3644     6.9348    -1.2946  H     1 RES1    0.0000
    15  H    -0.8664     2.8204    -1.7870  H     1 RES1    0.0000
    16  C    -0.2337     3.7202    -1.7475  C.3   1 RES1    0.0000
    17  H     0.4410     3.5271    -0.9025  H     1 RES1    0.0000
    18  H    -0.2300     2.8009    -3.8217  H     1 RES1    0.0000
    19  H     1.3616     2.9912    -3.2075  H     1 RES1    0.0000
    20  H     0.5003     4.6931    -5.3559  H     1 RES1    0.0000
    21  H     2.0837     4.3742    -4.7714  H     1 RES1    0.0000
    22  H    -2.3582     4.6684    -1.4909  H     1 RES1    0.0000
    23  H    -1.3703     4.8511    -0.0841  H     1 RES1    0.0000
    24  C     1.9084     5.2168    -1.9329  C.3   1 RES1    0.0000
    25  H     1.9467     4.1852    -1.5842  H     1 RES1    0.0000
    26  H     2.6544     5.3694    -2.7122  H     1 RES1    0.0000
    27  H     2.3172     5.7828    -1.0802  H     1 RES1    0.0000
    28  H     0.8122     6.8459    -2.2070  H     1 RES1    0.0000
    29  C     0.4499     5.8194    -2.2159  C.3   1 RES1    0.0000
    30  H     0.1390     5.7450    -1.1751  H     1 RES1    0.0000
    31  C    -0.7750     5.5618    -3.2911  C.3   1 RES1    0.0000
    32  H    -1.1082     4.5293    -3.3135  H     1 RES1    0.0000
    33  H    -0.4488     5.6993    -4.3326  H     1 RES1    0.0000
    34  C    -2.2828     6.1417    -3.5731  C.3   1 RES1    0.0000
    35  H    -2.3582     7.2261    -3.6564  H     1 RES1    0.0000
    36  H    -3.0069     5.8286    -2.8203  H     1 RES1    0.0000
    37  C    -2.8228     5.5786    -4.9112  C.3   1 RES1    0.0000
    38  H    -2.1781     5.8986    -5.7378  H     1 RES1    0.0000
    39  H    -2.8091     4.4829    -4.8878  H     1 RES1    0.0000
    40  C    -4.2432     6.0509    -5.1844  C.3   1 RES1    0.0000
    41  H    -4.6012     5.6438    -6.1352  H     1 RES1    0.0000
    42  H    -4.9254     5.7199    -4.3950  H     1 RES1    0.0000
    43  H    -4.2890     7.1429    -5.2435  H     1 RES1    0.0000
    44  B    -0.8158    10.4498    -0.5823  B     1 RES1    0.0000
    45  H    -1.3399     9.3964    -0.6716  H     1 RES1    0.0000
    46  H     0.3618    10.5241    -0.5735  H     1 RES1    0.0000
    47  H    -1.4693    11.4291    -0.5019  H     1 RES1    0.0000
@<TRIPOS>BOND
     1      1      2      1
     2      2      3      1
     3      2      8      1
     4      2     11      1
     5      3      4      1
     6      3     12      1
     7      4      5      1
     8      4     13      1
     9      4     14      1
    10      5     16      1
    11      5     22      1
    12      5     23      1
    13      6      7      1
    14      6     16      1
    15      6     18      1
    16      6     19      1
    17      7      8      1
    18      7     20      1
    19      7     21      1
    20      8      9      1
    21      8     10      1
    22     15     16      1
    23     16     17      1
    24     24     25      1
    25     24     26      1
    26     24     27      1
    27     24     29      1
    28     28     29      1
    29     29     30      1
    30     29     31      1
    31     31     32      1
    32     31     33      1
    33     31     34      1
    34     34     35      1
    35     34     36      1
    36     34     37      1
    37     37     38      1
    38     37     39      1
    39     37     40      1
    40     40     41      1
    41     40     42      1
    42     40     43      1
    43     44     45      1
    44     44     46      1
    45     44     47      1
@<TRIPOS>SUBSTRUCTURE
      1 RES1       1
